&jules_time
l_360=.false.,
main_run_end='2003-12-30 06:00:00',
main_run_start='2003-03-01 06:00:00',
print_step=48,
timestep_len=3600,
/
&jules_spinup
max_spinup_cycles=0,
/
